
##########                                Name:         CHEMBL23651
##########                DOCK_Rotatable_Bonds:                  13
##########                         Heavy_Atoms:                  39
##########                    Molecular_Weight:             530.777
##########                DOCK_Rotatable_Bonds:                  13
##########                       Formal_Charge:                   3
##########                     HBond_Acceptors:                   6
##########                        HBond_Donors:                   5
##########                         Heavy_Atoms:                  39
##########                          Grid_Score:          -50.498558
##########                     Grid_vdw_energy:          -47.484634
##########                      Grid_es_energy:           -3.013923
##########           Internal_energy_repulsive:           57.463345

@<TRIPOS>MOLECULE
CHEMBL23651
 87 91 1 0 0
SMALL
USER_CHARGES


@<TRIPOS>ATOM
      1 C1         24.4652   37.2493    6.2756 C.ar    1  <0>        -0.1173
      2 C2         24.7146   38.6079    6.0889 C.ar    1  <0>        -0.1059
      3 C3         24.4789   39.5066    7.0832 C.ar    1  <0>        -0.1168
      4 C4         23.9762   39.0618    8.3179 C.ar    1  <0>        -0.0324
      5 C5         23.7222   37.6802    8.5076 C.ar    1  <0>        -0.0525
      6 C6         23.9785   36.7820    7.4573 C.ar    1  <0>        -0.0984
      7 C7         23.2192   37.2353    9.7418 C.ar    1  <0>        -0.0929
      8 C8         22.9830   38.1344   10.7362 C.ar    1  <0>        -0.1202
      9 C9         23.2322   39.4925   10.5497 C.ar    1  <0>        -0.0973
     10 C10        23.7200   39.9597    9.3678 C.ar    1  <0>        -0.0712
     11 C11        23.9839   41.4322    9.1864 C.3     1  <0>        -0.0988
     12 C12        23.0638   42.2215   10.0817 C.2     1  <0>         0.5191
     13 O1         23.5191   42.8624   11.0052 O.2     1  <0>        -0.5079
     14 N1         21.7350   42.2149    9.8564 N.am    1  <0>        -0.6253
     15 C13        21.1679   41.4370    8.7465 C.3     1  <0>         0.1033
     16 C14        20.3030   42.3636    7.8862 C.3     1  <0>        -0.1285
     17 C15        19.2593   43.0483    8.7716 C.3     1  <0>        -0.1153
     18 C16        19.9651   43.8946    9.8337 C.3     1  <0>        -0.1430
     19 C17        20.8255   42.9808   10.7195 C.3     1  <0>         0.1107
     20 C18        18.3715   43.9485    7.9100 C.3     1  <0>        -0.0057
     21 N2         17.1105   44.2128    8.6158 N.4     1  <0>        -0.5118
     22 C19        16.0206   43.4743    7.9643 C.3     1  <0>        -0.0094
     23 C20        14.6770   44.0787    8.3771 C.3     1  <0>        -0.1504
     24 C21        13.5422   43.3169    7.6895 C.3     1  <0>        -0.1491
     25 C22        12.3066   44.2146    7.5993 C.3     1  <0>        -0.0104
     26 N3         11.9755   44.7276    8.9354 N.4     1  <0>        -0.5117
     27 C23        10.8288   45.6407    8.8391 C.3     1  <0>        -0.0061
     28 C24        11.1939   46.8252    7.9422 C.3     1  <0>        -0.1183
     29 C25        12.3454   47.6089    8.5762 C.3     1  <0>        -0.1494
     30 C26        12.7312   48.7736    7.6588 C.3     1  <0>         0.1025
     31 N4         11.5321   49.5777    7.3858 N.pl3   1  <0>        -0.5849
     32 C27        10.3361   48.9062    6.8592 C.3     1  <0>         0.1000
     33 C28         9.9771   47.7401    7.7855 C.3     1  <0>        -0.1307
     34 C29        11.5293   50.9491    7.6219 C.ar    1  <0>         0.3141
     35 C30        12.6637   51.5924    8.1165 C.ar    1  <0>        -0.2118
     36 C31        12.6200   52.9530    8.3365 C.ar    1  <0>         0.1767
     37 N5         11.5240   53.6443    8.0850 N.ar    1  <0>        -0.4883
     38 C32        10.4304   53.0724    7.6169 C.ar    1  <0>         0.1759
     39 C33        10.3938   51.7172    7.3645 C.ar    1  <0>        -0.2154
     40 H1         24.6570   36.5576    5.4686 H       1  <0>         0.1273
     41 H2         25.1009   38.9524    5.1410 H       1  <0>         0.1235
     42 H3         24.6776   40.5563    6.9244 H       1  <0>         0.1160
     43 H4         23.7897   35.7267    7.5873 H       1  <0>         0.1314
     44 H5         23.0205   36.1857    9.9004 H       1  <0>         0.1313
     45 H6         22.5963   37.7898   11.6840 H       1  <0>         0.1264
     46 H7         23.0358   40.1848   11.3550 H       1  <0>         0.1180
     47 H8         25.0196   41.6506    9.4468 H       1  <0>         0.1045
     48 H9         23.8045   41.7082    8.1472 H       1  <0>         0.1068
     49 H10        21.9741   41.0231    8.1408 H       1  <0>         0.1012
     50 H11        20.5539   40.6283    9.1432 H       1  <0>         0.0780
     51 H12        20.9340   43.1187    7.4172 H       1  <0>         0.0823
     52 H13        19.7996   41.7798    7.1155 H       1  <0>         0.0913
     53 H14        18.6445   42.2921    9.2595 H       1  <0>         0.1002
     54 H15        20.5993   44.6352    9.3465 H       1  <0>         0.0849
     55 H16        19.2212   44.4005   10.4492 H       1  <0>         0.0655
     56 H17        20.1843   42.2955   11.2739 H       1  <0>         0.0723
     57 H18        21.4058   43.5858   11.4161 H       1  <0>         0.1035
     58 H19        18.8855   44.8906    7.7193 H       1  <0>         0.1351
     59 H20        18.1605   43.4515    6.9631 H       1  <0>         0.1378
     60 H21        17.1933   43.9130    9.5757 H       1  <0>         0.4310
     61 H22        16.1322   43.5417    6.8821 H       1  <0>         0.1357
     62 H23        16.0574   42.4284    8.2689 H       1  <0>         0.1371
     63 H24        14.5619   44.0040    9.4584 H       1  <0>         0.1012
     64 H25        14.6435   45.1269    8.0797 H       1  <0>         0.0999
     65 H26        13.8548   43.0271    6.6862 H       1  <0>         0.0994
     66 H27        13.3016   42.4244    8.2671 H       1  <0>         0.1011
     67 H28        12.5124   45.0499    6.9301 H       1  <0>         0.1391
     68 H29        11.4660   43.6381    7.2129 H       1  <0>         0.1373
     69 H30        11.7415   43.9568    9.5431 H       1  <0>         0.4271
     70 H31         9.9772   45.1107    8.4124 H       1  <0>         0.1414
     71 H32        10.5694   46.0043    9.8334 H       1  <0>         0.1368
     72 H33        11.5006   46.4580    6.9628 H       1  <0>         0.1047
     73 H34        12.0311   47.9975    9.5449 H       1  <0>         0.0906
     74 H35        13.2039   46.9506    8.7089 H       1  <0>         0.0801
     75 H36        13.4820   49.3923    8.1500 H       1  <0>         0.1044
     76 H37        13.1309   48.3842    6.7225 H       1  <0>         0.0939
     77 H38         9.5067   49.6126    6.8228 H       1  <0>         0.1064
     78 H39        10.5406   48.5277    5.8577 H       1  <0>         0.0945
     79 H40         9.1501   47.1752    7.3555 H       1  <0>         0.1026
     80 H41         9.6852   48.1274    8.7616 H       1  <0>         0.0862
     81 H42        13.5636   51.0327    8.3248 H       1  <0>         0.1787
     82 H43        13.4935   53.4595    8.7197 H       1  <0>         0.2097
     83 H44         9.5544   53.6742    7.4247 H       1  <0>         0.2084
     84 H45         9.4974   51.2564    6.9767 H       1  <0>         0.1760
     85 H46        12.7696   45.2234    9.3116 H       1  <0>         0.4320
     86 H47        16.9105   45.2014    8.5883 H       1  <0>         0.4288
     87 H48        11.5221   54.6003    8.2492 H       1  <0>         0.4533
@<TRIPOS>BOND
     1     1     6   ar
     2     1     2   ar
     3     1    40    1
     4     2     3   ar
     5     2    41    1
     6     3     4   ar
     7     3    42    1
     8     4    10   ar
     9     4     5   ar
    10     5     6   ar
    11     5     7   ar
    12     6    43    1
    13     7     8   ar
    14     7    44    1
    15     8     9   ar
    16     8    45    1
    17     9    10   ar
    18     9    46    1
    19    10    11    1
    20    11    12    1
    21    11    47    1
    22    11    48    1
    23    12    13    2
    24    12    14   am
    25    14    19    1
    26    14    15    1
    27    15    16    1
    28    15    49    1
    29    15    50    1
    30    16    17    1
    31    16    51    1
    32    16    52    1
    33    17    18    1
    34    17    20    1
    35    17    53    1
    36    18    19    1
    37    18    54    1
    38    18    55    1
    39    19    56    1
    40    19    57    1
    41    20    21    1
    42    20    58    1
    43    20    59    1
    44    21    22    1
    45    21    60    1
    46    21    86    1
    47    22    23    1
    48    22    61    1
    49    22    62    1
    50    23    24    1
    51    23    63    1
    52    23    64    1
    53    24    25    1
    54    24    65    1
    55    24    66    1
    56    25    26    1
    57    25    67    1
    58    25    68    1
    59    26    27    1
    60    26    69    1
    61    26    85    1
    62    27    28    1
    63    27    70    1
    64    27    71    1
    65    28    33    1
    66    28    29    1
    67    28    72    1
    68    29    30    1
    69    29    73    1
    70    29    74    1
    71    30    31    1
    72    30    75    1
    73    30    76    1
    74    31    32    1
    75    31    34    1
    76    32    33    1
    77    32    77    1
    78    32    78    1
    79    33    79    1
    80    33    80    1
    81    34    39   ar
    82    34    35   ar
    83    35    36   ar
    84    35    81    1
    85    36    37   ar
    86    36    82    1
    87    37    38   ar
    88    37    87    1
    89    38    39   ar
    90    38    83    1
    91    39    84    1
@<TRIPOS>SUBSTRUCTURE
     1 <0>         1 TEMP              0 ****  ****    0 ROOT

