
##########                                Name:         CHEMBL89163
##########                DOCK_Rotatable_Bonds:                  10
##########                         Heavy_Atoms:                  29
##########                    Molecular_Weight:             437.434
##########                DOCK_Rotatable_Bonds:                  10
##########                       Formal_Charge:                  -1
##########                     HBond_Acceptors:                  13
##########                        HBond_Donors:                   3
##########                         Heavy_Atoms:                  29
##########                          Grid_Score:          -84.689934
##########                     Grid_vdw_energy:          -51.652119
##########                      Grid_es_energy:          -33.037815
##########           Internal_energy_repulsive:            7.198349

@<TRIPOS>MOLECULE
CHEMBL89163
 42 44 1 0 0
SMALL
USER_CHARGES


@<TRIPOS>ATOM
      1 C1         -6.2554    4.3420   15.6169 C.ar    1  <0>        -0.0994
      2 C2         -5.7442    4.2266   14.3342 C.ar    1  <0>        -0.1168
      3 C3         -5.2976    2.9811   13.8869 C.ar    1  <0>         0.0601
      4 N1         -5.3594    1.9190   14.6732 N.ar    1  <0>        -0.4231
      5 C4         -5.8422    1.9948   15.9039 C.ar    1  <0>         0.0793
      6 C5         -6.3054    3.2098   16.4143 C.ar    1  <0>        -0.1083
      7 C6         -5.8922    0.7794   16.7472 C.2     1  <0>         0.5346
      8 O1         -5.7996    0.8744   17.9624 O.co2   1  <0>        -0.6583
      9 O2         -6.0261   -0.3194   16.2286 O.co2   1  <0>        -0.6757
     10 C7         -4.7491    2.8476   12.5162 C.2     1  <0>         0.5957
     11 O3         -4.2467    3.8080   11.9668 O.2     1  <0>        -0.5254
     12 N2         -4.8075    1.6612   11.8795 N.am    1  <0>        -0.5794
     13 O4         -4.2851    1.5343   10.5695 O.3     1  <0>        -0.1415
     14 C8         -3.1056    0.7315   10.4895 C.3     1  <0>         0.0299
     15 C9         -1.8758    1.6052   10.7445 C.3     1  <0>         0.0643
     16 O5         -1.6852    2.4933    9.6413 O.3     1  <0>        -0.2887
     17 C10        -0.5812    3.2861    9.6708 C.ar    1  <0>         0.1990
     18 C11        -0.2182    4.0305    8.5513 C.ar    1  <0>        -0.2021
     19 C12         0.8801    4.8309    8.5532 C.ar    1  <0>         0.0149
     20 C13         1.7001    4.9370    9.7009 C.ar    1  <0>        -0.0049
     21 C14         1.3080    4.1705   10.8225 C.ar    1  <0>        -0.0758
     22 C15         0.1936    3.3676   10.8178 C.ar    1  <0>        -0.1207
     23 S1          2.5634    4.5766   12.0121 S.3     1  <0>         0.1265
     24 C16         3.4949    5.6988   10.9788 C.2     1  <0>        -0.4481
     25 N3          2.8157    5.6807    9.8645 N.2     1  <0>        -0.3732
     26 S2          4.9584    6.6004   11.3662 S.o2    1  <0>         2.7418
     27 O6          6.0468    5.7049   11.1859 O.2     1  <0>        -0.9377
     28 O7          4.8678    7.8384   10.6746 O.2     1  <0>        -0.9382
     29 N4          4.9009    6.9561   12.9825 N.pl3   1  <0>        -1.2372
     30 H1         -6.6032    5.2945   15.9886 H       1  <0>         0.1391
     31 H2         -5.6918    5.0900   13.6875 H       1  <0>         0.1419
     32 H3         -6.6979    3.2663   17.4189 H       1  <0>         0.1479
     33 H4         -5.2075    0.8944   12.3186 H       1  <0>         0.4267
     34 H5         -3.1520   -0.0582   11.2392 H       1  <0>         0.0806
     35 H6         -3.0356    0.2865    9.4969 H       1  <0>         0.0932
     36 H7         -2.0243    2.1845   11.6559 H       1  <0>         0.0960
     37 H8         -0.9964    0.9709   10.8565 H       1  <0>         0.0844
     38 H9         -0.8243    3.9699    7.6595 H       1  <0>         0.1492
     39 H10         1.1305    5.3936    7.6660 H       1  <0>         0.1463
     40 H11        -0.0742    2.8016   11.6977 H       1  <0>         0.1530
     41 H12         5.6238    7.4538   13.3956 H       1  <0>         0.4250
     42 H13         4.1444    6.6669   13.5163 H       1  <0>         0.4253
@<TRIPOS>BOND
     1     1     6   ar
     2     1     2   ar
     3     1    30    1
     4     2     3   ar
     5     2    31    1
     6     3     4   ar
     7     3    10    1
     8     4     5   ar
     9     5     6   ar
    10     5     7    1
    11     6    32    1
    12     7     8    2
    13     7     9    1
    14    10    11    2
    15    10    12   am
    16    12    13    1
    17    12    33    1
    18    13    14    1
    19    14    15    1
    20    14    34    1
    21    14    35    1
    22    15    16    1
    23    15    36    1
    24    15    37    1
    25    16    17    1
    26    17    22   ar
    27    17    18   ar
    28    18    19   ar
    29    18    38    1
    30    19    20   ar
    31    19    39    1
    32    20    25    1
    33    20    21   ar
    34    21    22   ar
    35    21    23    1
    36    22    40    1
    37    23    24    1
    38    24    25    2
    39    24    26    1
    40    26    27    2
    41    26    28    2
    42    26    29    1
    43    29    41    1
    44    29    42    1
@<TRIPOS>SUBSTRUCTURE
     1 <0>         1 TEMP              0 ****  ****    0 ROOT

